  70
       -113.60692768
 N          2.6413262792       -1.3147602118       -0.5175520196
 C          3.7443760372       -1.7566718781        0.3780285876
 H          3.9687726889       -2.7958993137        0.1339062428
 H          3.3818384693       -1.7244688287        1.4079095009
 C          4.9798239829       -0.8452138012        0.1815490283
 H          5.8605808352       -1.4656775887       -0.0124595949
 C          4.7148489542        0.0116410870       -1.0781837996
 H          5.6074909990        0.5952076798       -1.3151448404
 C          4.3736618312       -0.9386487431       -2.2333101031
 H          5.1453904952       -1.7071127118       -2.3229431643
 H          4.3365764295       -0.3864082557       -3.1747570261
 C          2.9992666314       -1.5663787205       -1.9428505049
 H          2.2201017900       -1.1154429185       -2.5536274790
 H          2.9941772342       -2.6456724082       -2.1034053396
 C          3.5229930131        0.9507691582       -0.8567083308
 H          3.2253513252        1.3787084435       -1.8161064335
 H          3.7849716344        1.7658703391       -0.1799656236
 C          2.3496426430        0.1381667736       -0.2791416813
 H          2.2859752967        0.2546268508        0.8053926919
 C          0.9751153825        0.5306551155       -0.8486011251
 C          5.2668712055        0.0027369987        1.3885987784
 H          4.4107534132        0.4755171372        1.8664352687
 C          6.4864519523        0.2020516451        1.8741439774
 H          7.3631582181       -0.2560198686        1.4263517069
 H          6.6629392981        0.8308616018        2.7391804047
 N         -0.6171807811        4.1612712687        0.8882014193
 C          0.1256509642        4.1731996648       -0.1917275192
 H          0.2666354470        5.1421134112       -0.6623472326
 C          0.6882284507        3.0150152380       -0.7616788913
 H          1.2397958167        3.0884858233       -1.6904473179
 C          0.4850931898        1.7955080563       -0.1634296605
 C         -0.2406713488        1.7520945296        1.0635881626
 C         -0.4471019956        0.5699788382        1.8252471069
 H         -0.0267229334       -0.3653132684        1.4790924457
 C         -1.1921709963        0.6076683922        2.9823396174
 C         -1.7771000926        1.8282602907        3.4131410894
 H         -2.3681071000        1.8079792542        4.3213451724
 C         -1.5851804253        2.9783903838        2.7073348705
 H         -2.0109083245        3.9210652388        3.0307969336
 C         -0.7957269522        2.9758739982        1.5269001961
 C         -3.2836172811       -1.3413032346        0.2257209871
 C         -3.1532002105       -0.0249036775       -0.1907594116
 C         -2.6087204084        0.2563355032       -1.4442576502
 C         -2.2035940241       -0.7862356659       -2.2806767370
 C         -2.3481972174       -2.1036204878       -1.8802146180
 C         -2.8798934739       -2.3630538063       -0.6221770491
 H         -3.6822174798       -1.5835826682        1.2016572900
 H         -3.4399413829        0.7720708505        0.4855607317
 H         -1.7670464803       -0.5517635072       -3.2440334001
 H         -2.0296264594       -2.9263564312       -2.5062692560
 N         -2.9858810250       -3.7452955127       -0.1699403459
 O         -2.7867702478       -4.6327108125       -0.9843532853
 O         -3.2809628038       -3.9433588401        0.9978963415
 C         -2.3564419824        1.6580451001       -1.9129938098
 N         -3.2072810568        2.5963798759       -1.4560589040
 N         -3.1722227655        3.9254853817       -1.9077430290
 O         -1.4183179260        1.9370099666       -2.6605010622
 H         -4.0613374585        2.3455605128       -0.9526584211
 O          1.0503425778        0.6961848664       -2.2456080907
 H          0.2161323111        1.1185240806       -2.5443449224
 H          0.2778233419       -0.2847926091       -0.6187495600
 O         -1.4424293191       -0.4473029654        3.7921162197
 C         -0.7916336865       -1.6818524672        3.5355489778
 H          0.2954926596       -1.5769608499        3.6169864766
 H         -1.1527050906       -2.3711406286        4.2983001357
 H         -1.0375805567       -2.0780287776        2.5469199131
 H         -2.9132088136        4.5428518433       -1.1383438854
 H         -2.4463399110        3.9799567172       -2.6212080394
 H          1.7692825690       -1.8809765564       -0.2768848833
 Cl         0.2662823192       -2.9178884995        0.2610247431
  70
       -113.60603143
 N          3.3603749365       -1.8514062415        0.2665789231
 C          4.4294916614       -1.5391517830        1.2531834192
 H          4.9337196880       -2.4747429228        1.4987272055
 H          3.9562235515       -1.1622029636        2.1625648672
 C          5.4110278444       -0.5039249563        0.6523320586
 H          6.4355017991       -0.8767147692        0.7515623064
 C          5.0900414007       -0.3951589928       -0.8565570516
 H          5.8316661262        0.2443963921       -1.3407440760
 C          5.1319538894       -1.8089345938       -1.4508656663
 H          6.0746126508       -2.2954293195       -1.1885213590
 H          5.0696115425       -1.7605726118       -2.5401109041
 C          3.9315106685       -2.5935666826       -0.8935863701
 H          3.1418147919       -2.6911986562       -1.6353997385
 H          4.2119423065       -3.5895766611       -0.5471972768
 C          3.6847747499        0.1784565562       -1.0755294193
 H          3.3992091054        0.0347453040       -2.1194450316
 H          3.6564666719        1.2463900854       -0.8526403621
 C          2.6968299138       -0.5772512084       -0.1681896317
 H          2.4995912719       -0.0185732799        0.7498280133
 C          1.3291853676       -0.8489171444       -0.8190302703
 C          5.3352665011        0.8296266408        1.3411104998
 H          4.3392229098        1.2086379655        1.5624944959
 C          6.4020645264        1.5485173071        1.6697692516
 H          7.4110326915        1.2016944419        1.4681257057
 H          6.3148406868        2.5144365404        2.1537276808
 N         -1.0051560798        2.7962546149       -0.7844520405
 C         -0.3177149190        2.4191032662       -1.8358822227
 H         -0.3810754361        3.0656416472       -2.7063312217
 C          0.4595819368        1.2463106330       -1.8706015513
 H          0.9965783814        0.9759553932       -2.7709512414
 C          0.5099367337        0.4304657695       -0.7668522458
 C         -0.2091955614        0.8178210080        0.4024229201
 C         -0.2397042111        0.0575207877        1.6027507236
 H          0.3008399760       -0.8788021367        1.6522115887
 C         -0.9719885252        0.4925388296        2.6844393732
 C         -1.6804968697        1.7216136621        2.6165272357
 H         -2.2273693055        2.0349351496        3.4980804206
 C         -1.6711999013        2.4689598560        1.4768567061
 H         -2.2036702863        3.4110609029        1.4199478957
 C         -0.9484949309        2.0297524853        0.3361825556
 C         -3.5363082991       -0.9087002324       -0.0948082736
 C         -4.1258273106        0.3399244571        0.0332622390
 C         -3.9165842478        1.3174774802       -0.9393429493
 C         -3.1589895216        1.0248760830       -2.0751821790
 C         -2.5659365927       -0.2187715256       -2.2111196000
 C         -2.7465831635       -1.1644793009       -1.2071815397
 H         -3.6645939935       -1.6737837857        0.6588602388
 H         -4.7409593293        0.5715862733        0.8950516728
 H         -3.0427486291        1.7669559418       -2.8553786962
 H         -1.9760580116       -0.4674213983       -3.0833150534
 N         -2.0846838615       -2.4569090072       -1.3320371991
 O         -1.1611007844       -2.5410491336       -2.1291571299
 O         -2.4781509801       -3.3807775440       -0.6401134102
 C         -4.5380306641        2.6721465415       -0.7615846961
 N         -3.6874351322        3.6893289528       -1.0054859009
 N         -4.0543987671        5.0108846599       -0.6976710429
 O         -5.7123112290        2.8329430297       -0.4344805746
 H         -2.6724288565        3.5203863691       -1.0204360158
 O          1.4967421749       -1.3046089693       -2.1422308059
 H          0.6810181672       -1.7724034775       -2.4131099278
 H          0.8342257415       -1.6235945617       -0.2217432868
 O         -1.0884992844       -0.1562636466        3.8655292733
 C         -0.4079963111       -1.3891088268        4.0407316616
 H          0.6775738538       -1.2574401321        3.9823825206
 H         -0.6816911466       -1.7395415758        5.0355129430
 H         -0.7155375684       -2.1281952011        3.2959497314
 H         -4.0931458973        5.5610314018       -1.5554601840
 H         -4.9925037470        4.9798049511       -0.2994945191
 H          2.6241819400       -2.4644486430        0.7382145828
 Cl         1.2619414074       -3.4758462882        1.5805324336
  70
       -113.60598822
 N          3.2264693153       -1.8621242952       -0.7758492408
 C          3.5978937275       -2.2150876823        0.6210903880
 H          4.2039827770       -3.1212362301        0.5831116124
 H          2.6803149781       -2.4390735028        1.1696784235
 C          4.3639208855       -1.0399377593        1.2748262982
 H          5.3321196537       -1.3937257563        1.6434832023
 C          4.6361037413        0.0048928516        0.1678580026
 H          5.2345642725        0.8207591820        0.5798627845
 C          5.3951902615       -0.6902787125       -0.9693682975
 H          6.2903809910       -1.1774016233       -0.5752178462
 H          5.7100734071        0.0460366352       -1.7119118952
 C          4.4492781075       -1.7167020603       -1.6163299322
 H          4.1284891604       -1.3928917812       -2.6039137706
 H          4.9064992864       -2.7035155300       -1.7047079802
 C          3.3206094090        0.5610359197       -0.3903140199
 H          3.5392984893        1.1546330055       -1.2800955132
 H          2.8340248605        1.2031474030        0.3456933631
 C          2.3962500971       -0.6115904963       -0.7676869730
 H          1.6351720066       -0.7729621449       -0.0004349759
 C          1.6649390517       -0.4239918108       -2.1088653003
 C          3.6130988558       -0.4372365052        2.4289794338
 H          2.5272787767       -0.4605077040        2.3599346377
 C          4.2039567384        0.1047619041        3.4874095569
 H          5.2845973949        0.1302333656        3.5911738932
 H          3.6351130376        0.5453754664        4.2980718109
 N         -1.7251824576        2.2292748139       -1.6388281209
 C         -0.5495009200        2.6631446773       -2.0261548797
 H         -0.4724991381        3.7297152022       -2.2164117678
 C          0.5652540761        1.8207972326       -2.1968430868
 H          1.5022213731        2.2350875823       -2.5471969692
 C          0.4590941668        0.4807744635       -1.9135378942
 C         -0.7997301170       -0.0232936181       -1.4706349876
 C         -1.0300404155       -1.3812078401       -1.1209436279
 H         -0.2139446761       -2.0898032043       -1.1752076974
 C         -2.2832859804       -1.7971410561       -0.7310870976
 C         -3.3614569744       -0.8731017879       -0.6996659523
 H         -4.3364124596       -1.2502136076       -0.4139427354
 C         -3.1637229058        0.4385310342       -1.0128423607
 H         -3.9822484937        1.1482887137       -0.9905970064
 C         -1.8743881342        0.9028037709       -1.3840586296
 C         -2.8267144519        0.3657145221        2.5878423524
 C         -3.5234358764        1.5090628099        2.2271505592
 C         -2.8628031023        2.5602575290        1.5914858557
 C         -1.4813296161        2.5041547880        1.3954591362
 C         -0.7783869277        1.3669289651        1.7536306730
 C         -1.4678007149        0.2964617525        2.3135852480
 H         -3.3241041941       -0.4775600801        3.0474633051
 H         -4.5885542026        1.5848056942        2.4131599340
 H         -0.9604067449        3.3496948205        0.9635074523
 H          0.2900846013        1.2986633371        1.5997054962
 N         -0.7490804260       -0.9426411096        2.5795891075
 O         -1.2913466660       -1.7997006112        3.2583981081
 O          0.3596906483       -1.0687314008        2.0814681981
 C         -3.6483740572        3.7370964076        1.0922656380
 N         -3.3678231586        4.0346596146       -0.1917500612
 N         -3.9421966736        5.1445715345       -0.8323086851
 O         -4.4601835184        4.3623205816        1.7718698094
 H         -2.7613302974        3.4428675653       -0.7755214746
 O          2.5570730467        0.1093132462       -3.0617305704
 H          2.1119289930        0.1340480679       -3.9315002060
 H          1.3220362722       -1.4120961025       -2.4389793398
 O         -2.6130676378       -3.0535640172       -0.3538764367
 C         -1.5931291331       -4.0378675043       -0.2839691762
 H         -0.8390911373       -3.7744306578        0.4653542363
 H         -2.0927050749       -4.9603020518        0.0105850219
 H         -1.1016882233       -4.1793249407       -1.2502105877
 H         -4.6313336478        4.8368100796       -1.5184238394
 H         -4.4262542280        5.6852021014       -0.1162659922
 H          2.6416739087       -2.6535829270       -1.1894818479
 Cl         1.6230835292       -4.0403168656       -1.9948183152