# opt freq 3-21g m062x

Title Card Required

0 1
 C                  0.08033861    0.53966052   -0.03200366
 H                  0.38063671    1.14258448   -0.86339031
 H                 -0.11177953    1.16744673    0.81290763
 O                 -1.10754170   -0.18105106   -0.37025680
 H                 -1.37696803   -0.72199218    0.37566018
 O                  1.12364197   -0.38440878    0.28817447
 H                 -1.80794116    0.43930316   -0.58520157

